! Users should add all user specific namelist changes below in the form of 
! namelist_var = new_namelist_value 
  microp_scheme = 'P3' 
